/*--------------------------------*- C++ -*----------------------------------*\
  =========                 |
  \\      /  F ield         | OpenFOAM: The Open Source CFD Toolbox
   \\    /   O peration     | Website:  https://openfoam.org
    \\  /    A nd           | Version:  7
     \\/     M anipulation  |
\*---------------------------------------------------------------------------*/
FoamFile
{
    version     2.0;
    format      binary;
    class       volVectorField;
    location    "0";
    object      U;
}
// * * * * * * * * * * * * * * * * * * * * * * * * * * * * * * * * * * * * * //

dimensions      [0 1 -1 0 0 0 0];

internalField   uniform (0 0 0);

boundaryField
{
    nozzle_expand_wall_m
    {
        type            uniformFixedValue;
        uniformValue    constant (0 0 0);
        value           uniform (0 0 0);
    }
    nozzle_fuel_wall_m
    {
        type            uniformFixedValue;
        uniformValue    constant (0 0 0);
        value           uniform (0 0 0);
    }
    nozzle_inlet_m
    {
        type            uniformFixedValue;
        uniformValue    constant (0 -90 0);
        value           uniform (0 -90 0);
    }
    nozzle_outlet_m
    {
        type            zeroGradient;
    }
    nozzle_reaction_pre_wall_m
    {
        type            uniformFixedValue;
        uniformValue    constant (0 0 0);
        value           uniform (0 0 0);
    }
    nozzle_radioactive_wall_m
    {
        type            uniformFixedValue;
        uniformValue    constant (0 0 0);
        value           uniform (0 0 0);
    }
    nozzle_reaction_wall_m
    {
        type            uniformFixedValue;
        uniformValue    constant (0 0 0);
        value           uniform (0 0 0);
    }
}


// ************************************************************************* //
